Circuit: * Z:\Dev\pedals\pedals\Mad Professor Deep Blue Delay\sim\deepblue.asc

WARNING: Node OUT is floating.

WARNING: Less than two connections to node OUT.  This node is used by R8.
Early termination of direct N-R iteration.
Direct Newton iteration failed to find .op point.  (Use ".option noopiter" to skip.)
Starting Gmin stepping
Gmin = 10
vernier = 0.5
vernier = 0.25
vernier = 0.125
Gmin = 4.096
vernier = 0.0625
vernier = 0.03125
vernier = 0.015625
Gmin = 3.91048
vernier = 0.0078125
vernier = 0.00390625
vernier = 0.00195313
vernier = 0.000976563
Gmin = 3.91619
vernier = 0.000488281
Gmin = 0
Gmin stepping failed

Starting source stepping with srcstepmethod=0
Source Step = 3.0303%
Source Step = 33.3333%
Source Step = 63.6364%
Source Step = 93.9394%
Source stepping succeeded in finding the operating point.


Date: Tue Sep 05 22:32:01 2017
Total elapsed time: 0.203 seconds.

tnom = 27
temp = 27
method = modified trap
totiter = 4014
traniter = 2397
tranpoints = 1150
accept = 1119
rejected = 31
matrix size = 63
fillins = 426
solver = Normal
Matrix Compiler1:    2548 opcodes  7.9/4.2/[4.5]
Matrix Compiler2:     834 opcodes
