Circuit: * Z:\Dev\pedals\pedals\Ross Compressor\sim\ross_comp.asc

Direct Newton iteration failed to find .op point.  (Use ".option noopiter" to skip.)
Starting Gmin stepping
Gmin = 10
Gmin = 1.07374
Gmin = 0.115292
Gmin = 0.0123794
Gmin = 0.00132923
Gmin = 0.000142725
Gmin = 1.5325e-005
Gmin = 1.6455e-006
Gmin = 1.76685e-007
Gmin = 1.89714e-008
Gmin = 2.03704e-009
Gmin = 2.18725e-010
Gmin = 2.34854e-011
Gmin = 2.52173e-012
Gmin = 2.70769e-013
Gmin = 0
Gmin stepping succeeded in finding the operating point.


Date: Tue May 02 21:05:12 2017
Total elapsed time: 106.937 seconds.

tnom = 27
temp = 27
method = modified trap
totiter = 5949398
traniter = 5948893
tranpoints = 2963458
accept = 2647822
rejected = 315636
matrix size = 66
fillins = 84
solver = Normal
Thread vector: 14.2/9.4[2] 5.2/3.0[2] 2.9/2.5[2] 0.6/1.2[1]  2592/500
Matrix Compiler1: 10.29 KB object code size  2.8/1.3/[0.8]
Matrix Compiler2: 7.24 KB object code size  1.2/1.7/[0.8]


