Circuit: * C:\_dev\pedals\Ross Compressor\sim\ross_comp.asc

WARNING: Node OUT2 is floating.

WARNING: Less than two connections to node OUT2.  This node is used by C20.
Direct Newton iteration failed to find .op point.  (Use ".option noopiter" to skip.)
Starting Gmin stepping
Gmin = 10
Gmin = 1.07374
vernier = 0.5
vernier = 0.25
vernier = 0.125
vernier = 0.0625
Gmin = 1.2061
vernier = 0.03125
vernier = 0.015625
vernier = 0.0078125
vernier = 0.00390625
Gmin = 1.20024
vernier = 0.00195313
vernier = 0.000976563
vernier = 0.000488281
Gmin = 0
Gmin stepping succeeded in finding the operating point.


Date: Thu Aug 16 12:42:59 2018
Total elapsed time: 0.268 seconds.

tnom = 27
temp = 27
method = modified trap
totiter = 3826
traniter = 2307
tranpoints = 1127
accept = 1102
rejected = 25
matrix size = 91
fillins = 192
solver = Normal
Thread vector: 12.9/8.5[2] 5.4/3.5[2] 3.3/1.8[2] 0.5/1.6[1]  2592/500
Matrix Compiler1: 19.14 KB object code size  5.5/3.1/[1.2]
Matrix Compiler2: 11.06 KB object code size  1.5/2.4/[0.7]

