Circuit: * \\nas\Data\Dev\pedals\pedals\Vemuran Jan Ray\sim\jan_ray.asc

Early termination of direct N-R iteration.
Direct Newton iteration failed to find .op point.  (Use ".option noopiter" to skip.)
Starting Gmin stepping
Gmin = 10
Gmin = 1.07374
Gmin = 0.115292
Gmin = 0.0123794
Gmin = 0.00132923
Gmin = 0.000142725
Gmin = 1.5325e-005
Gmin = 1.6455e-006
vernier = 0.5
vernier = 0.25
vernier = 0.125
vernier = 0.0625
vernier = 0.03125
vernier = 0.015625
vernier = 0.0078125
Gmin = 1.05312e-006
vernier = 0.00390625
vernier = 0.00195313
vernier = 0.000976563
vernier = 0.000488281
Gmin = 0
Gmin stepping failed

Starting source stepping with srcstepmethod=0
Source Step = 3.0303%
Source Step = 33.3333%
Source Step = 63.6364%
Source Step = 93.9394%
Source stepping succeeded in finding the operating point.

.step gain=0.1
.step gain=0.2
.step gain=0.3
.step gain=0.4
.step gain=0.5
.step gain=0.6
.step gain=0.7
.step gain=0.8
.step gain=0.9
.step gain=1

Date: Mon Apr 24 21:52:57 2017
Total elapsed time: 79.650 seconds.

tnom = 27
temp = 27
method = modified trap
totiter = 8220
traniter = 6443
tranpoints = 2303
accept = 1843
rejected = 460
matrix size = 77
fillins = 538
solver = Normal
Matrix Compiler1: 66.51 KB object code size  10.6/6.2/[4.7]
Matrix Compiler2: 15.11 KB object code size  1.6/1.6/[0.7]


