Circuit: * \\nas\Data\Dev\pedals\pedals\Vemuran Jan Ray\sim\jan_ray.asc

Early termination of direct N-R iteration.
Direct Newton iteration failed to find .op point.  (Use ".option noopiter" to skip.)
Starting Gmin stepping
Gmin = 10
vernier = 0.5
vernier = 0.25
vernier = 0.125
Gmin = 4.096
vernier = 0.0625
vernier = 0.03125
vernier = 0.015625
Gmin = 3.91048
vernier = 0.0078125
vernier = 0.00390625
vernier = 0.00195313
vernier = 0.000976563
Gmin = 3.91619
vernier = 0.000488281
Gmin = 0
Gmin stepping failed

Starting source stepping with srcstepmethod=0
Source Step = 3.0303%
Source Step = 33.3333%
Source Step = 63.6364%
Source Step = 93.9394%
Source stepping succeeded in finding the operating point.

Heightened Def Con from 3.12595e-009 to 3.1572e-009

Date: Thu May 25 21:39:47 2017
Total elapsed time: 0.311 seconds.

tnom = 27
temp = 27
method = modified trap
totiter = 4933
traniter = 3311
tranpoints = 1229
accept = 1173
rejected = 57
matrix size = 77
fillins = 490
solver = Normal
Matrix Compiler1: 52.88 KB object code size  9.2/4.9/[4.0]
Matrix Compiler2: 14.41 KB object code size  1.6/1.8/[0.7]

