Circuit: * Z:\Dev\pedals\pedals\EHX Big Muff\sim\triangle.asc

Direct Newton iteration for .op point succeeded.
.step sustain=0.1
.step sustain=0.2
.step sustain=0.3
.step sustain=0.4
.step sustain=0.5
.step sustain=0.6
.step sustain=0.7
.step sustain=0.8
.step sustain=0.9
.step sustain=1

Date: Tue Jan 23 23:21:34 2018
Total elapsed time: 1.821 seconds.

tnom = 27
temp = 27
method = modified trap
totiter = 5343
traniter = 5336
tranpoints = 1955
accept = 1585
rejected = 370
matrix size = 41
fillins = 6
solver = Normal
Matrix Compiler1: 3.41 KB object code size  0.8/0.4/[0.3]
Matrix Compiler2: 3.63 KB object code size  0.4/0.5/[0.4]


