Circuit: * Z:\Dev\pedals\pedals\EHX Big Muff\sim\triangle.asc

Direct Newton iteration for .op point succeeded.
.step sustain=0.1
.step sustain=0.2
.step sustain=0.3
.step sustain=0.4
.step sustain=0.5
.step sustain=0.6
.step sustain=0.7
.step sustain=0.8
.step sustain=0.9
.step sustain=1

Date: Thu May 11 22:39:16 2017
Total elapsed time: 1.060 seconds.

tnom = 27
temp = 27
method = modified trap
totiter = 5434
traniter = 5427
tranpoints = 2014
accept = 1623
rejected = 391
matrix size = 41
fillins = 6
solver = Normal
Matrix Compiler1:     194 opcodes  1.2/[0.4]/0.6
Matrix Compiler2: off  [0.3]/0.5/0.8


