Circuit: * Z:\Dev\pedals\pedals\Colorsound Powerboost\sim\powerboost.asc

WARNING: Node N020 is floating.

Direct Newton iteration for .op point succeeded.
.step gain=0.1
.step gain=0.2
.step gain=0.3
.step gain=0.4
.step gain=0.5
.step gain=0.6
.step gain=0.7
.step gain=0.8
.step gain=0.9
.step gain=1

Date: Thu May 25 21:20:26 2017
Total elapsed time: 0.965 seconds.

tnom = 27
temp = 27
method = modified trap
totiter = 8261
traniter = 8253
tranpoints = 2882
accept = 2227
rejected = 655
matrix size = 35
fillins = 46
solver = Normal
Matrix Compiler1: 5.13 KB object code size  3.0/1.6/[0.8]
Matrix Compiler2: 3.73 KB object code size  1.0/1.0/[0.7]

