Circuit: * Z:\Dev\pedals\pedals\Colorsound Powerboost\sim\powerboost.asc

WARNING: Node N020 is floating.

Direct Newton iteration for .op point succeeded.
.step gain=0.1
.step gain=0.2
.step gain=0.3
.step gain=0.4
.step gain=0.5
.step gain=0.6
.step gain=0.7
.step gain=0.8
.step gain=0.9
.step gain=1

Date: Mon Mar 12 22:30:09 2018
Total elapsed time: 0.827 seconds.

tnom = 27
temp = 27
method = trap
totiter = 8
traniter = 0
tranpoints = 0
accept = 0
rejected = 0
matrix size = 35
fillins = 46
solver = Normal
Matrix Compiler1:     280 opcodes
Matrix Compiler2: 3.73 KB object code size
