Circuit: * Z:\Dev\pedals\pedals\Colorsound Powerboost\sim\powerboost.asc

WARNING: Node N020 is floating.

Direct Newton iteration for .op point succeeded.
.step gain=0.1
.step gain=0.2
.step gain=0.3
.step gain=0.4
.step gain=0.5
.step gain=0.6
.step gain=0.7
.step gain=0.8
.step gain=0.9
.step gain=1

Date: Thu Apr 27 20:40:44 2017
Total elapsed time: 0.642 seconds.

tnom = 27
temp = 27
method = modified trap
totiter = 8190
traniter = 8182
tranpoints = 2870
accept = 2210
rejected = 660
matrix size = 35
fillins = 46
solver = Normal
Matrix Compiler1: 5.13 KB object code size  1.2/0.5/[0.3]
Matrix Compiler2: 3.73 KB object code size  0.3/0.4/[0.3]


