Circuit: * Z:\Dev\pedals\pedals\Colorsound Powerboost\powerboost.asc

WARNING: Node N020 is floating.

Direct Newton iteration for .op point succeeded.
.step gain=0.1
.step gain=0.2
.step gain=0.3
.step gain=0.4
.step gain=0.5
.step gain=0.6
.step gain=0.7
.step gain=0.8
.step gain=0.9
.step gain=1

Date: Fri Apr 21 17:08:16 2017
Total elapsed time: 0.628 seconds.

tnom = 27
temp = 27
method = modified trap
totiter = 8012
traniter = 8004
tranpoints = 2809
accept = 2172
rejected = 637
matrix size = 34
fillins = 36
solver = Normal
Matrix Compiler1: 4.32 KB object code size  1.1/0.5/[0.3]
Matrix Compiler2: off  [0.3]/0.4/0.3


